LTspice 24.1.4 for Windows
Circuit: C:\Users\HP\OneDrive\Documents\LTspice\Class_B_amplifier.net
Start Time: Tue Oct 14 06:49:55 2025
solver = Normal
Maximum thread count: 12
tnom = 27
temp = 27
method = trap
Direct Newton iteration for .op point succeeded.
Total elapsed time: 0.074 seconds.

Files loaded:
C:\Users\HP\OneDrive\Documents\LTspice\Class_B_amplifier.net
C:\Users\HP\AppData\Local\LTspice\lib\cmp\standard.bjt

