LTspice 24.1.4 for Windows
Circuit: C:\Users\HP\OneDrive\Documents\LTspice\Current_shunt_negative_feedback.net
Start Time: Fri Oct 31 11:31:31 2025
solver = Normal
Maximum thread count: 12
tnom = 27
temp = 27
method = trap
Direct Newton iteration for .op point succeeded.
Total elapsed time: 0.213 seconds.

Files loaded:
C:\Users\HP\OneDrive\Documents\LTspice\Current_shunt_negative_feedback.net
C:\Users\HP\AppData\Local\LTspice\lib\cmp\standard.bjt

