LTspice 24.1.4 for Windows
Circuit: C:\Users\HP\OneDrive\Documents\LTspice\Current_mirror.net
Start Time: Mon Oct  6 16:43:29 2025
solver = Normal
Maximum thread count: 12
tnom = 27
temp = 27
method = trap
Direct Newton iteration for .op point succeeded.
Total elapsed time: 0.333 seconds.

Files loaded:
C:\Users\HP\OneDrive\Documents\LTspice\Current_mirror.net
C:\Users\HP\AppData\Local\LTspice\lib\cmp\standard.bjt

