LTspice 24.1.4 for Windows
Circuit: C:\Users\HP\OneDrive\Documents\LTspice\Current_series_negative_feedback.net
Start Time: Tue Sep 30 16:14:23 2025
solver = Normal
Maximum thread count: 12
tnom = 27
temp = 27
method = trap
Direct Newton iteration for .op point succeeded.
Total elapsed time: 0.107 seconds.

Files loaded:
C:\Users\HP\OneDrive\Documents\LTspice\Current_series_negative_feedback.net
C:\Users\HP\AppData\Local\LTspice\lib\cmp\standard.bjt

