LTspice 24.1.4 for Windows
Circuit: C:\Users\HP\OneDrive\Documents\LTspice\Differential_amplifier.net
Start Time: Fri Nov 14 02:28:05 2025
solver = Normal
Maximum thread count: 12
tnom = 27
temp = 27
method = trap
Direct Newton iteration for .op point succeeded.
Total elapsed time: 0.072 seconds.

Files loaded:
C:\Users\HP\OneDrive\Documents\LTspice\Differential_amplifier.net
C:\Users\HP\AppData\Local\LTspice\lib\cmp\standard.bjt

