LTspice 24.1.4 for Windows
Circuit: C:\Users\HP\OneDrive\Documents\LTspice\Draft10.net
Start Time: Fri Mar 27 15:29:04 2026
solver = Normal
Maximum thread count: 12
tnom = 27
temp = 27
method = trap
Direct Newton iteration for .op point succeeded.
Total elapsed time: 0.139 seconds.

Files loaded:
C:\Users\HP\OneDrive\Documents\LTspice\Draft10.net
C:\Users\HP\AppData\Local\LTspice\lib\cmp\standard.dio
C:\Users\HP\AppData\Local\LTspice\lib\sub\UniversalOpAmp1.lib

