LTspice 24.1.4 for Windows
Circuit: C:\Users\HP\OneDrive\Documents\LTspice\Draft8.net
Start Time: Sat Jan 31 10:49:52 2026
solver = Normal
Maximum thread count: 12
tnom = 27
temp = 27
method = trap
Direct Newton iteration for .op point succeeded.
Total elapsed time: 0.185 seconds.

Files loaded:
C:\Users\HP\OneDrive\Documents\LTspice\Draft8.net
C:\Users\HP\AppData\Local\LTspice\lib\cmp\standard.mos

