LTspice 24.1.4 for Windows
Circuit: C:\Users\HP\OneDrive\Documents\LTspice\Draft3.net
Start Time: Thu Nov 13 18:12:06 2025
solver = Normal
Maximum thread count: 12
tnom = 27
temp = 27
method = trap
Direct Newton iteration for .op point succeeded.
Total elapsed time: 0.113 seconds.

Files loaded:
C:\Users\HP\OneDrive\Documents\LTspice\Draft3.net
C:\Users\HP\AppData\Local\LTspice\lib\cmp\standard.bjt

