LTspice 24.1.4 for Windows
Circuit: C:\Users\HP\OneDrive\Documents\LTspice\Draft6.net
Start Time: Wed Sep  3 17:49:24 2025
solver = Normal
Maximum thread count: 12
tnom = 27
temp = 27
method = trap
Direct Newton iteration for .op point succeeded.
Total elapsed time: 0.118 seconds.

Files loaded:
C:\Users\HP\OneDrive\Documents\LTspice\Draft6.net
C:\Users\HP\AppData\Local\LTspice\lib\cmp\standard.bjt

