LTspice 24.1.4 for Windows
Circuit: C:\Users\HP\OneDrive\Documents\LTspice\Draft7.net
Start Time: Thu Sep 11 17:34:05 2025
solver = Normal
Maximum thread count: 12
tnom = 27
temp = 27
method = trap
Direct Newton iteration for .op point succeeded.
Total elapsed time: 0.070 seconds.

Files loaded:
C:\Users\HP\OneDrive\Documents\LTspice\Draft7.net
C:\Users\HP\AppData\Local\LTspice\lib\cmp\standard.bjt

