LTspice 24.1.4 for Windows
Circuit: C:\Users\HP\OneDrive\Documents\LTspice\Draft1.net
Start Time: Wed Aug 13 13:19:27 2025
solver = Normal
Maximum thread count: 12
tnom = 27
temp = 27
method = trap
Direct Newton iteration for .op point succeeded.
Changing Tseed to 1.95313e-10
Total elapsed time: 0.075 seconds.

Files loaded:
C:\Users\HP\OneDrive\Documents\LTspice\Draft1.net
C:\Users\HP\AppData\Local\LTspice\lib\cmp\standard.bjt

