LTspice 24.1.4 for Windows
Circuit: C:\Users\HP\OneDrive\Documents\LTspice\Draft2.net
Start Time: Wed Aug 13 01:39:16 2025
solver = Normal
Maximum thread count: 12
tnom = 27
temp = 27
method = trap
.OP point found by inspection.
.step c=1e-07
.step c=1e-06
.step c=1e-05
Total elapsed time: 0.352 seconds.

Files loaded:
C:\Users\HP\OneDrive\Documents\LTspice\Draft2.net
C:\Users\HP\AppData\Local\LTspice\lib\cmp\standard.dio

