LTspice 24.1.4 for Windows
Circuit: C:\Users\HP\OneDrive\Documents\LTspice\Draft9.net
Start Time: Sun Mar 15 10:06:54 2026
solver = Normal
Maximum thread count: 12
tnom = 27
temp = 27
method = trap
Direct Newton iteration for .op point succeeded.
Total elapsed time: 0.117 seconds.

Files loaded:
C:\Users\HP\OneDrive\Documents\LTspice\Draft9.net
C:\Users\HP\AppData\Local\LTspice\lib\sub\UniversalOpAmp1.lib

