LTspice 24.1.4 for Windows
Circuit: C:\Users\HP\OneDrive\Documents\LTspice\Phase_shift_oscillator_using_Opamp.net
Start Time: Tue Apr  7 12:19:01 2026
solver = Normal
Maximum thread count: 12
tnom = 27
temp = 27
method = trap
Direct Newton iteration for .op point succeeded.
Total elapsed time: 0.208 seconds.

Files loaded:
C:\Users\HP\OneDrive\Documents\LTspice\Phase_shift_oscillator_using_Opamp.net
C:\Users\HP\AppData\Local\LTspice\lib\cmp\standard.dio
C:\Users\HP\AppData\Local\LTspice\lib\sub\UniversalOpAmp1.lib

