LTspice 24.1.4 for Windows
Circuit: C:\Users\HP\OneDrive\Documents\LTspice\Voltage_follower.net
Start Time: Tue Sep  2 22:18:16 2025
solver = Normal
Maximum thread count: 12
tnom = 27
temp = 27
method = trap
Direct Newton iteration for .op point succeeded.
Total elapsed time: 0.044 seconds.

Files loaded:
C:\Users\HP\OneDrive\Documents\LTspice\Voltage_follower.net
C:\Users\HP\AppData\Local\LTspice\lib\cmp\standard.bjt

