LTspice 24.1.4 for Windows
Circuit: C:\Users\HP\OneDrive\Documents\LTspice\Wien_bridge_oscillator_using_opamp.net
Start Time: Tue Apr  7 12:23:45 2026
solver = Normal
Maximum thread count: 12
tnom = 27
temp = 27
method = trap
Direct Newton iteration for .op point succeeded.
Total elapsed time: 0.282 seconds.

Files loaded:
C:\Users\HP\OneDrive\Documents\LTspice\Wien_bridge_oscillator_using_opamp.net
C:\Users\HP\AppData\Local\LTspice\lib\cmp\standard.dio
C:\Users\HP\AppData\Local\LTspice\lib\sub\UniversalOpAmp1.lib

